@<TRIPOS>MOLECULE
Unnamed
42 46 1 0 0
SMALL
USER_CHARGES


@<TRIPOS>ATOM
      1 O           4.6691    0.8173    0.5551 O.3       1     ****    0.0000
      2 O           2.8273   -2.2121    0.9643 O.3       1     ****    0.0000
      3 O           1.5557    3.2176   -0.5278 O.2       1     ****    0.0000
      4 O           5.3114   -1.1690    1.3835 O.2       1     ****    0.0000
      5 N           0.1869    1.5725   -0.2132 N.am      1     ****    0.0000
      6 N          -2.1584   -0.8685    0.2029 N.ar      1     ****    0.0000
      7 C           3.2414   -1.1380    0.1279 C.3       1     ****    0.0000
      8 C           2.0907   -0.1534    0.0282 C.2       1     ****    0.0000
      9 C          -0.1656    0.3683   -0.0197 C.2       1     ****    0.0000
     10 C           2.3774    1.1454   -0.1860 C.2       1     ****    0.0000
     11 C          -1.0128    2.4262   -0.3236 C.3       1     ****    0.0000
     12 C           0.8036   -0.5490    0.1020 C.2       1     ****    0.0000
     13 C          -2.0719    1.3863   -0.1448 C.ar      1     ****    0.0000
     14 C          -1.4963    0.1921    0.0294 C.ar      1     ****    0.0000
     15 C           1.3550    2.0395   -0.3158 C.2       1     ****    0.0000
     16 C           3.5430   -1.7150   -1.2621 C.3       1     ****    0.0000
     17 C           3.8231    1.5432   -0.3054 C.3       1     ****    0.0000
     18 C           4.5073   -0.5201    0.7435 C.2       1     ****    0.0000
     19 C          -3.4032    1.4993   -0.1398 C.ar      1     ****    0.0000
     20 C           4.6935   -2.7307   -1.3073 C.3       1     ****    0.0000
     21 C          -4.0974    0.3615    0.0468 C.ar      1     ****    0.0000
     22 C          -3.4270   -0.8013    0.2141 C.ar      1     ****    0.0000
     23 C          -5.4424    0.3680    0.0684 C.ar      1     ****    0.0000
     24 C          -4.1245   -1.9375    0.4001 C.ar      1     ****    0.0000
     25 C          -6.1265   -0.7710    0.2548 C.ar      1     ****    0.0000
     26 C          -5.4659   -1.9259    0.4210 C.ar      1     ****    0.0000
     27 H          -1.0613    3.1830    0.4929 H         1     ****    0.0000
     28 H          -1.0952    2.9023   -1.3279 H         1     ****    0.0000
     29 H           0.5215   -1.6013    0.2503 H         1     ****    0.0000
     30 H           2.6212   -2.2107   -1.6524 H         1     ****    0.0000
     31 H           3.7798   -0.8862   -1.9705 H         1     ****    0.0000
     32 H           4.1713    1.4179   -1.3555 H         1     ****    0.0000
     33 H           3.9708    2.6126   -0.0306 H         1     ****    0.0000
     34 H          -3.8784    2.4818   -0.2833 H         1     ****    0.0000
     35 H           4.8065   -3.1534   -2.3324 H         1     ****    0.0000
     36 H           5.6677   -2.2630   -1.0407 H         1     ****    0.0000
     37 H           4.5156   -3.5841   -0.6147 H         1     ****    0.0000
     38 H           2.0184   -2.5971    0.6278 H         1     ****    0.0000
     39 H          -6.0050    1.3076   -0.0665 H         1     ****    0.0000
     40 H          -3.5999   -2.8989    0.5389 H         1     ****    0.0000
     41 H          -7.2292   -0.7587    0.2713 H         1     ****    0.0000
     42 H          -6.0254   -2.8640    0.5743 H         1     ****    0.0000
@<TRIPOS>BOND
     1     1    17     1
     2     1    18     1
     3     2     7     1
     4     2    38     1
     5     3    15     2
     6     4    18     2
     7     5     9     1
     8     5    11     1
     9     5    15     1
    10     6    14     2
    11     6    22     1
    12     7     8     1
    13     7    16     1
    14     7    18     1
    15     8    10     2
    16     8    12     1
    17     9    12     2
    18     9    14     1
    19    10    15     1
    20    10    17     1
    21    11    13     1
    22    11    27     1
    23    11    28     1
    24    12    29     1
    25    13    14     1
    26    13    19     2
    27    16    20     1
    28    16    30     1
    29    16    31     1
    30    17    32     1
    31    17    33     1
    32    19    21     1
    33    19    34     1
    34    20    35     1
    35    20    36     1
    36    20    37     1
    37    21    22     1
    38    21    23     2
    39    22    24     2
    40    23    25     1
    41    23    39     1
    42    24    26     1
    43    24    40     1
    44    25    26     2
    45    25    41     1
    46    26    42     1
