REMARK  2 active torsions:
REMARK  status: ('A' for Active; 'I' for Inactive)
REMARK    1  A    between atoms: O_2  and  C_7 
REMARK    2  A    between atoms: C_7  and  C_16 
ROOT
ATOM      1  O   *** d   *       4.669   0.817   0.555  0.00  0.00    -0.314 OA
ATOM      2  O   *** d   *       1.556   3.218  -0.528  0.00  0.00    -0.267 OA
ATOM      3  O   *** d   *       5.311  -1.169   1.384  0.00  0.00    -0.261 OA
ATOM      4  N   *** d   *       0.187   1.573  -0.213  0.00  0.00    -0.307 N 
ATOM      5  N   *** d   *      -2.158  -0.869   0.203  0.00  0.00    -0.246 NA
ATOM      6  C   *** d   *       3.241  -1.138   0.128  0.00  0.00     0.173 C 
ATOM      7  C   *** d   *       2.091  -0.153   0.028  0.00  0.00     0.002 A 
ATOM      8  C   *** d   *      -0.166   0.368  -0.020  0.00  0.00     0.068 A 
ATOM      9  C   *** d   *       2.377   1.145  -0.186  0.00  0.00     0.044 A 
ATOM     10  C   *** d   *      -1.013   2.426  -0.324  0.00  0.00     0.173 A 
ATOM     11  C   *** d   *       0.804  -0.549   0.102  0.00  0.00     0.043 A 
ATOM     12  C   *** d   *      -2.072   1.386  -0.145  0.00  0.00    -0.008 A 
ATOM     13  C   *** d   *      -1.496   0.192   0.029  0.00  0.00     0.092 A 
ATOM     14  C   *** d   *       1.355   2.039  -0.316  0.00  0.00     0.257 A 
ATOM     15  C   *** d   *       3.823   1.543  -0.305  0.00  0.00     0.224 C 
ATOM     16  C   *** d   *       4.507  -0.520   0.744  0.00  0.00     0.298 C 
ATOM     17  C   *** d   *      -3.403   1.499  -0.140  0.00  0.00     0.025 A 
ATOM     18  C   *** d   *      -4.097   0.361   0.047  0.00  0.00    -0.007 A 
ATOM     19  C   *** d   *      -3.427  -0.801   0.214  0.00  0.00     0.068 A 
ATOM     20  C   *** d   *      -5.442   0.368   0.068  0.00  0.00     0.014 A 
ATOM     21  C   *** d   *      -4.125  -1.938   0.400  0.00  0.00     0.032 A 
ATOM     22  C   *** d   *      -6.127  -0.771   0.255  0.00  0.00     0.001 A 
ATOM     23  C   *** d   *      -5.466  -1.926   0.421  0.00  0.00     0.002 A 
ENDROOT
BRANCH   6  24
ATOM     24  O   *** d   *       2.827  -2.212   0.964  0.00  0.00    -0.375 OA
ATOM     25  H   *** d   *       2.018  -2.597   0.628  0.00  0.00     0.211 HD
ENDBRANCH   6  24
BRANCH   6  26
ATOM     26  C   *** d   *       3.543  -1.715  -1.262  0.00  0.00     0.049 C 
ATOM     27  C   *** d   *       4.694  -2.731  -1.307  0.00  0.00     0.009 C 
ENDBRANCH   6  26
TORSDOF 2
