MODEL 1
REMARK VINA RESULT:      -9.6      0.000      0.000
REMARK  2 active torsions:
REMARK  status: ('A' for Active; 'I' for Inactive)
REMARK    1  A    between atoms: O_2  and  C_7 
REMARK    2  A    between atoms: C_7  and  C_16 
ROOT
ATOM      1  O   *** d   *       1.460   5.563  22.272  0.00  0.00    -0.314 OA
ATOM      2  O   *** d   *       0.070   8.913  24.135  0.00  0.00    -0.267 OA
ATOM      3  O   *** d   *       3.177   4.576  21.213  0.00  0.00    -0.261 OA
ATOM      4  N   *** d   *       2.048   9.783  24.031  0.00  0.00    -0.307 N 
ATOM      5  N   *** d   *       5.076  11.353  23.995  0.00  0.00    -0.246 NA
ATOM      6  C   *** d   *       3.744   6.232  22.886  0.00  0.00     0.173 C 
ATOM      7  C   *** d   *       3.140   7.565  23.288  0.00  0.00     0.002 A 
ATOM      8  C   *** d   *       3.305   9.806  23.851  0.00  0.00     0.068 A 
ATOM      9  C   *** d   *       1.813   7.626  23.508  0.00  0.00     0.044 A 
ATOM     10  C   *** d   *       1.585  11.122  24.446  0.00  0.00     0.173 A 
ATOM     11  C   *** d   *       3.898   8.666  23.471  0.00  0.00     0.043 A 
ATOM     12  C   *** d   *       2.892  11.847  24.442  0.00  0.00    -0.008 A 
ATOM     13  C   *** d   *       3.865  11.005  24.081  0.00  0.00     0.092 A 
ATOM     14  C   *** d   *       1.258   8.807  23.905  0.00  0.00     0.257 A 
ATOM     15  C   *** d   *       1.006   6.368  23.334  0.00  0.00     0.224 C 
ATOM     16  C   *** d   *       2.787   5.370  22.047  0.00  0.00     0.298 C 
ATOM     17  C   *** d   *       3.175  13.120  24.731  0.00  0.00     0.025 A 
ATOM     18  C   *** d   *       4.469  13.479  24.635  0.00  0.00    -0.007 A 
ATOM     19  C   *** d   *       5.384  12.557  24.262  0.00  0.00     0.068 A 
ATOM     20  C   *** d   *       4.858  14.738  24.905  0.00  0.00     0.014 A 
ATOM     21  C   *** d   *       6.678  12.920  24.167  0.00  0.00     0.032 A 
ATOM     22  C   *** d   *       6.150  15.089  24.807  0.00  0.00     0.001 A 
ATOM     23  C   *** d   *       7.061  14.177  24.437  0.00  0.00     0.002 A 
ENDROOT
BRANCH   6  24
ATOM     24  O   *** d   *       4.901   6.494  22.101  0.00  0.00    -0.375 OA
ATOM     25  H   *** d   *       5.602   6.838  22.653  0.00  0.00     0.211 HD
ENDBRANCH   6  24
BRANCH   6  26
ATOM     26  C   *** d   *       4.193   5.475  24.144  0.00  0.00     0.049 C 
ATOM     27  C   *** d   *       5.496   4.676  23.990  0.00  0.00     0.009 C 
ENDBRANCH   6  26
TORSDOF 2
ENDMDL
MODEL 2
REMARK VINA RESULT:      -8.3      1.483      2.321
REMARK  2 active torsions:
REMARK  status: ('A' for Active; 'I' for Inactive)
REMARK    1  A    between atoms: O_2  and  C_7 
REMARK    2  A    between atoms: C_7  and  C_16 
ROOT
ATOM      1  O   *** d   *       2.886   3.108  21.860  0.00  0.00    -0.314 OA
ATOM      2  O   *** d   *       0.733   6.229  23.360  0.00  0.00    -0.267 OA
ATOM      3  O   *** d   *       4.860   2.400  21.056  0.00  0.00    -0.261 OA
ATOM      4  N   *** d   *       2.531   7.430  23.423  0.00  0.00    -0.307 N 
ATOM      5  N   *** d   *       5.229   9.508  23.629  0.00  0.00    -0.246 NA
ATOM      6  C   *** d   *       4.933   4.193  22.682  0.00  0.00     0.173 C 
ATOM      7  C   *** d   *       4.067   5.413  22.936  0.00  0.00     0.002 A 
ATOM      8  C   *** d   *       3.779   7.668  23.382  0.00  0.00     0.068 A 
ATOM      9  C   *** d   *       2.732   5.247  23.004  0.00  0.00     0.044 A 
ATOM     10  C   *** d   *       1.800   8.681  23.706  0.00  0.00     0.173 A 
ATOM     11  C   *** d   *       4.598   6.636  23.137  0.00  0.00     0.043 A 
ATOM     12  C   *** d   *       2.955   9.625  23.804  0.00  0.00    -0.008 A 
ATOM     13  C   *** d   *       4.094   8.954  23.602  0.00  0.00     0.092 A 
ATOM     14  C   *** d   *       1.940   6.326  23.269  0.00  0.00     0.257 A 
ATOM     15  C   *** d   *       2.179   3.861  22.816  0.00  0.00     0.224 C 
ATOM     16  C   *** d   *       4.244   3.143  21.795  0.00  0.00     0.298 C 
ATOM     17  C   *** d   *       2.981  10.938  24.047  0.00  0.00     0.025 A 
ATOM     18  C   *** d   *       4.196  11.516  24.073  0.00  0.00    -0.007 A 
ATOM     19  C   *** d   *       5.293  10.756  23.858  0.00  0.00     0.068 A 
ATOM     20  C   *** d   *       4.330  12.833  24.310  0.00  0.00     0.014 A 
ATOM     21  C   *** d   *       6.508  11.338  23.885  0.00  0.00     0.032 A 
ATOM     22  C   *** d   *       5.545  13.402  24.335  0.00  0.00     0.001 A 
ATOM     23  C   *** d   *       6.636  12.652  24.122  0.00  0.00     0.002 A 
ENDROOT
BRANCH   6  24
ATOM     24  O   *** d   *       6.113   4.624  22.014  0.00  0.00    -0.375 OA
ATOM     25  H   *** d   *       6.306   4.042  21.280  0.00  0.00     0.211 HD
ENDBRANCH   6  24
BRANCH   6  26
ATOM     26  C   *** d   *       5.352   3.575  24.023  0.00  0.00     0.049 C 
ATOM     27  C   *** d   *       6.795   3.051  24.074  0.00  0.00     0.009 C 
ENDBRANCH   6  26
TORSDOF 2
ENDMDL
MODEL 3
REMARK VINA RESULT:      -8.3      2.875      5.554
REMARK  2 active torsions:
REMARK  status: ('A' for Active; 'I' for Inactive)
REMARK    1  A    between atoms: O_2  and  C_7 
REMARK    2  A    between atoms: C_7  and  C_16 
ROOT
ATOM      1  O   *** d   *      -1.430  12.055  24.244  0.00  0.00    -0.314 OA
ATOM      2  O   *** d   *       2.364  13.547  24.146  0.00  0.00    -0.267 OA
ATOM      3  O   *** d   *      -2.741  10.241  24.063  0.00  0.00    -0.261 OA
ATOM      4  N   *** d   *       3.145  11.533  24.028  0.00  0.00    -0.307 N 
ATOM      5  N   *** d   *       4.610   8.458  23.849  0.00  0.00    -0.246 NA
ATOM      6  C   *** d   *      -0.499   9.876  24.901  0.00  0.00     0.173 C 
ATOM      7  C   *** d   *       0.857  10.461  24.554  0.00  0.00     0.002 A 
ATOM      8  C   *** d   *       3.118  10.265  24.087  0.00  0.00     0.068 A 
ATOM      9  C   *** d   *       0.977  11.800  24.480  0.00  0.00     0.044 A 
ATOM     10  C   *** d   *       4.517  11.982  23.716  0.00  0.00     0.173 A 
ATOM     11  C   *** d   *       1.943   9.684  24.366  0.00  0.00     0.043 A 
ATOM     12  C   *** d   *       5.197  10.654  23.628  0.00  0.00    -0.008 A 
ATOM     13  C   *** d   *       4.307   9.684  23.860  0.00  0.00     0.092 A 
ATOM     14  C   *** d   *       2.197  12.345  24.206  0.00  0.00     0.257 A 
ATOM     15  C   *** d   *      -0.247  12.637  24.738  0.00  0.00     0.224 C 
ATOM     16  C   *** d   *      -1.669  10.722  24.373  0.00  0.00     0.298 C 
ATOM     17  C   *** d   *       6.472  10.350  23.369  0.00  0.00     0.025 A 
ATOM     18  C   *** d   *       6.783   9.041  23.360  0.00  0.00    -0.007 A 
ATOM     19  C   *** d   *       5.814   8.130  23.606  0.00  0.00     0.068 A 
ATOM     20  C   *** d   *       8.039   8.631  23.111  0.00  0.00     0.014 A 
ATOM     21  C   *** d   *       6.129   6.821  23.597  0.00  0.00     0.032 A 
ATOM     22  C   *** d   *       8.342   7.323  23.103  0.00  0.00     0.001 A 
ATOM     23  C   *** d   *       7.384   6.417  23.347  0.00  0.00     0.002 A 
ENDROOT
BRANCH   6  24
ATOM     24  O   *** d   *      -0.586   8.588  24.305  0.00  0.00    -0.375 OA
ATOM     25  H   *** d   *      -1.410   8.166  24.552  0.00  0.00     0.211 HD
ENDBRANCH   6  24
BRANCH   6  26
ATOM     26  C   *** d   *      -0.605   9.697  26.422  0.00  0.00     0.049 C 
ATOM     27  C   *** d   *      -0.484   8.248  26.915  0.00  0.00     0.009 C 
ENDBRANCH   6  26
TORSDOF 2
ENDMDL
MODEL 4
REMARK VINA RESULT:      -8.0      2.081      3.817
REMARK  2 active torsions:
REMARK  status: ('A' for Active; 'I' for Inactive)
REMARK    1  A    between atoms: O_2  and  C_7 
REMARK    2  A    between atoms: C_7  and  C_16 
ROOT
ATOM      1  O   *** d   *       4.837   3.748  23.245  0.00  0.00    -0.314 OA
ATOM      2  O   *** d   *       6.744   7.338  23.570  0.00  0.00    -0.267 OA
ATOM      3  O   *** d   *       2.874   2.658  23.222  0.00  0.00    -0.261 OA
ATOM      4  N   *** d   *       4.833   8.351  23.509  0.00  0.00    -0.307 N 
ATOM      5  N   *** d   *       1.947  10.166  23.420  0.00  0.00    -0.246 NA
ATOM      6  C   *** d   *       2.858   4.936  22.400  0.00  0.00     0.173 C 
ATOM      7  C   *** d   *       3.560   6.210  22.832  0.00  0.00     0.002 A 
ATOM      8  C   *** d   *       3.582   8.474  23.326  0.00  0.00     0.068 A 
ATOM      9  C   *** d   *       4.889   6.170  23.038  0.00  0.00     0.044 A 
ATOM     10  C   *** d   *       5.406   9.656  23.893  0.00  0.00     0.173 A 
ATOM     11  C   *** d   *       2.899   7.378  22.967  0.00  0.00     0.043 A 
ATOM     12  C   *** d   *       4.163  10.487  23.866  0.00  0.00    -0.008 A 
ATOM     13  C   *** d   *       3.124   9.720  23.522  0.00  0.00     0.092 A 
ATOM     14  C   *** d   *       5.543   7.314  23.390  0.00  0.00     0.257 A 
ATOM     15  C   *** d   *       5.600   4.859  22.836  0.00  0.00     0.224 C 
ATOM     16  C   *** d   *       3.505   3.669  22.983  0.00  0.00     0.298 C 
ATOM     17  C   *** d   *       3.986  11.787  24.121  0.00  0.00     0.025 A 
ATOM     18  C   *** d   *       2.727  12.250  24.010  0.00  0.00    -0.007 A 
ATOM     19  C   *** d   *       1.740  11.398  23.655  0.00  0.00     0.068 A 
ATOM     20  C   *** d   *       2.444  13.543  24.245  0.00  0.00     0.014 A 
ATOM     21  C   *** d   *       0.481  11.865  23.544  0.00  0.00     0.032 A 
ATOM     22  C   *** d   *       1.186  13.998  24.133  0.00  0.00     0.001 A 
ATOM     23  C   *** d   *       0.203  13.156  23.781  0.00  0.00     0.002 A 
ENDROOT
BRANCH   6  24
ATOM     24  O   *** d   *       1.515   4.995  22.867  0.00  0.00    -0.375 OA
ATOM     25  H   *** d   *       1.320   4.229  23.405  0.00  0.00     0.211 HD
ENDBRANCH   6  24
BRANCH   6  26
ATOM     26  C   *** d   *       2.819   4.867  20.867  0.00  0.00     0.049 C 
ATOM     27  C   *** d   *       3.269   3.527  20.266  0.00  0.00     0.009 C 
ENDBRANCH   6  26
TORSDOF 2
ENDMDL
MODEL 5
REMARK VINA RESULT:      -7.6      3.113      6.592
REMARK  2 active torsions:
REMARK  status: ('A' for Active; 'I' for Inactive)
REMARK    1  A    between atoms: O_2  and  C_7 
REMARK    2  A    between atoms: C_7  and  C_16 
ROOT
ATOM      1  O   *** d   *      -0.446  11.827  23.998  0.00  0.00    -0.314 OA
ATOM      2  O   *** d   *       3.596  11.700  23.475  0.00  0.00    -0.267 OA
ATOM      3  O   *** d   *      -2.350  10.657  24.220  0.00  0.00    -0.261 OA
ATOM      4  N   *** d   *       3.554   9.552  23.723  0.00  0.00    -0.307 N 
ATOM      5  N   *** d   *       3.740   6.166  24.093  0.00  0.00    -0.246 NA
ATOM      6  C   *** d   *      -0.329   9.600  25.033  0.00  0.00     0.173 C 
ATOM      7  C   *** d   *       1.102   9.550  24.530  0.00  0.00     0.002 A 
ATOM      8  C   *** d   *       3.062   8.421  24.029  0.00  0.00     0.068 A 
ATOM      9  C   *** d   *       1.702  10.706  24.193  0.00  0.00     0.044 A 
ATOM     10  C   *** d   *       4.952   9.378  23.281  0.00  0.00     0.173 A 
ATOM     11  C   *** d   *       1.792   8.394  24.457  0.00  0.00     0.043 A 
ATOM     12  C   *** d   *       5.074   7.895  23.428  0.00  0.00    -0.008 A 
ATOM     13  C   *** d   *       3.917   7.397  23.876  0.00  0.00     0.092 A 
ATOM     14  C   *** d   *       3.001  10.685  23.774  0.00  0.00     0.257 A 
ATOM     15  C   *** d   *       0.914  11.981  24.327  0.00  0.00     0.224 C 
ATOM     16  C   *** d   *      -1.150  10.732  24.392  0.00  0.00     0.298 C 
ATOM     17  C   *** d   *       6.109   7.085  23.188  0.00  0.00     0.025 A 
ATOM     18  C   *** d   *       5.906   5.775  23.423  0.00  0.00    -0.007 A 
ATOM     19  C   *** d   *       4.701   5.364  23.876  0.00  0.00     0.068 A 
ATOM     20  C   *** d   *       6.885   4.877  23.213  0.00  0.00     0.014 A 
ATOM     21  C   *** d   *       4.503   4.052  24.110  0.00  0.00     0.032 A 
ATOM     22  C   *** d   *       6.676   3.572  23.449  0.00  0.00     0.001 A 
ATOM     23  C   *** d   *       5.482   3.160  23.899  0.00  0.00     0.002 A 
ENDROOT
BRANCH   6  24
ATOM     24  O   *** d   *      -0.954   8.365  24.701  0.00  0.00    -0.375 OA
ATOM     25  H   *** d   *      -0.863   8.192  23.765  0.00  0.00     0.211 HD
ENDBRANCH   6  24
BRANCH   6  26
ATOM     26  C   *** d   *      -0.330   9.731  26.562  0.00  0.00     0.049 C 
ATOM     27  C   *** d   *      -0.336   8.399  27.327  0.00  0.00     0.009 C 
ENDBRANCH   6  26
TORSDOF 2
ENDMDL
MODEL 6
REMARK VINA RESULT:      -7.5     13.792     16.756
REMARK  2 active torsions:
REMARK  status: ('A' for Active; 'I' for Inactive)
REMARK    1  A    between atoms: O_2  and  C_7 
REMARK    2  A    between atoms: C_7  and  C_16 
ROOT
ATOM      1  O   *** d   *      -3.532   2.312  12.321  0.00  0.00    -0.314 OA
ATOM      2  O   *** d   *      -3.655   2.885  16.356  0.00  0.00    -0.267 OA
ATOM      3  O   *** d   *      -4.454   1.307  10.536  0.00  0.00    -0.261 OA
ATOM      4  N   *** d   *      -5.532   1.815  16.444  0.00  0.00    -0.307 N 
ATOM      5  N   *** d   *      -8.500   0.178  16.831  0.00  0.00    -0.246 NA
ATOM      6  C   *** d   *      -5.945   1.843  12.367  0.00  0.00     0.173 C 
ATOM      7  C   *** d   *      -5.807   1.798  13.878  0.00  0.00     0.002 A 
ATOM      8  C   *** d   *      -6.585   1.265  15.994  0.00  0.00     0.068 A 
ATOM      9  C   *** d   *      -4.724   2.368  14.439  0.00  0.00     0.044 A 
ATOM     10  C   *** d   *      -5.528   1.736  17.919  0.00  0.00     0.173 A 
ATOM     11  C   *** d   *      -6.755   1.249  14.664  0.00  0.00     0.043 A 
ATOM     12  C   *** d   *      -6.822   1.019  18.131  0.00  0.00    -0.008 A 
ATOM     13  C   *** d   *      -7.393   0.773  16.947  0.00  0.00     0.092 A 
ATOM     14  C   *** d   *      -4.602   2.370  15.798  0.00  0.00     0.257 A 
ATOM     15  C   *** d   *      -3.709   3.008  13.532  0.00  0.00     0.224 C 
ATOM     16  C   *** d   *      -4.591   1.795  11.641  0.00  0.00     0.298 C 
ATOM     17  C   *** d   *      -7.420   0.631  19.261  0.00  0.00     0.025 A 
ATOM     18  C   *** d   *      -8.599  -0.004  19.123  0.00  0.00    -0.007 A 
ATOM     19  C   *** d   *      -9.099  -0.206  17.884  0.00  0.00     0.068 A 
ATOM     20  C   *** d   *      -9.282  -0.434  20.200  0.00  0.00     0.014 A 
ATOM     21  C   *** d   *     -10.280  -0.841  17.750  0.00  0.00     0.032 A 
ATOM     22  C   *** d   *     -10.457  -1.065  20.054  0.00  0.00     0.001 A 
ATOM     23  C   *** d   *     -10.956  -1.269  18.826  0.00  0.00     0.002 A 
ENDROOT
BRANCH   6  24
ATOM     24  O   *** d   *      -6.699   0.708  11.962  0.00  0.00    -0.375 OA
ATOM     25  H   *** d   *      -7.419   0.556  12.573  0.00  0.00     0.211 HD
ENDBRANCH   6  24
BRANCH   6  26
ATOM     26  C   *** d   *      -6.731   3.098  11.962  0.00  0.00     0.049 C 
ATOM     27  C   *** d   *      -7.578   2.950  10.689  0.00  0.00     0.009 C 
ENDBRANCH   6  26
TORSDOF 2
ENDMDL
MODEL 7
REMARK VINA RESULT:      -7.3      3.045      4.872
REMARK  2 active torsions:
REMARK  status: ('A' for Active; 'I' for Inactive)
REMARK    1  A    between atoms: O_2  and  C_7 
REMARK    2  A    between atoms: C_7  and  C_16 
ROOT
ATOM      1  O   *** d   *       5.792   1.036  22.007  0.00  0.00    -0.314 OA
ATOM      2  O   *** d   *       2.841   3.771  22.668  0.00  0.00    -0.267 OA
ATOM      3  O   *** d   *       7.988   0.675  21.711  0.00  0.00    -0.261 OA
ATOM      4  N   *** d   *       4.338   5.305  22.961  0.00  0.00    -0.307 N 
ATOM      5  N   *** d   *       6.510   7.884  23.475  0.00  0.00    -0.246 NA
ATOM      6  C   *** d   *       7.379   2.561  23.101  0.00  0.00     0.173 C 
ATOM      7  C   *** d   *       6.275   3.601  23.031  0.00  0.00     0.002 A 
ATOM      8  C   *** d   *       5.500   5.781  23.149  0.00  0.00     0.068 A 
ATOM      9  C   *** d   *       5.010   3.180  22.844  0.00  0.00     0.044 A 
ATOM     10  C   *** d   *       3.352   6.404  22.943  0.00  0.00     0.173 A 
ATOM     11  C   *** d   *       6.523   4.916  23.196  0.00  0.00     0.043 A 
ATOM     12  C   *** d   *       4.271   7.562  23.166  0.00  0.00    -0.008 A 
ATOM     13  C   *** d   *       5.526   7.117  23.280  0.00  0.00     0.092 A 
ATOM     14  C   *** d   *       4.001   4.097  22.816  0.00  0.00     0.257 A 
ATOM     15  C   *** d   *       4.767   1.702  22.706  0.00  0.00     0.224 C 
ATOM     16  C   *** d   *       7.102   1.334  22.217  0.00  0.00     0.298 C 
ATOM     17  C   *** d   *       4.008   8.869  23.258  0.00  0.00     0.025 A 
ATOM     18  C   *** d   *       5.065   9.676  23.466  0.00  0.00    -0.007 A 
ATOM     19  C   *** d   *       6.299   9.134  23.568  0.00  0.00     0.068 A 
ATOM     20  C   *** d   *       4.907  11.007  23.574  0.00  0.00     0.014 A 
ATOM     21  C   *** d   *       7.355   9.945  23.777  0.00  0.00     0.032 A 
ATOM     22  C   *** d   *       5.966  11.805  23.781  0.00  0.00     0.001 A 
ATOM     23  C   *** d   *       7.192  11.272  23.883  0.00  0.00     0.002 A 
ENDROOT
BRANCH   6  24
ATOM     24  O   *** d   *       8.582   3.167  22.644  0.00  0.00    -0.375 OA
ATOM     25  H   *** d   *       9.336   2.766  23.075  0.00  0.00     0.211 HD
ENDBRANCH   6  24
BRANCH   6  26
ATOM     26  C   *** d   *       7.591   2.138  24.561  0.00  0.00     0.049 C 
ATOM     27  C   *** d   *       8.925   1.430  24.844  0.00  0.00     0.009 C 
ENDBRANCH   6  26
TORSDOF 2
ENDMDL
MODEL 8
REMARK VINA RESULT:      -7.2      3.003      3.763
REMARK  2 active torsions:
REMARK  status: ('A' for Active; 'I' for Inactive)
REMARK    1  A    between atoms: O_2  and  C_7 
REMARK    2  A    between atoms: C_7  and  C_16 
ROOT
ATOM      1  O   *** d   *      -0.850   4.055  26.271  0.00  0.00    -0.314 OA
ATOM      2  O   *** d   *      -0.573   8.082  26.847  0.00  0.00    -0.267 OA
ATOM      3  O   *** d   *       0.021   2.232  25.291  0.00  0.00    -0.261 OA
ATOM      4  N   *** d   *       1.334   8.090  25.826  0.00  0.00    -0.307 N 
ATOM      5  N   *** d   *       4.358   8.349  24.268  0.00  0.00    -0.246 NA
ATOM      6  C   *** d   *       1.574   3.999  25.866  0.00  0.00     0.173 C 
ATOM      7  C   *** d   *       1.501   5.514  25.818  0.00  0.00     0.002 A 
ATOM      8  C   *** d   *       2.382   7.595  25.304  0.00  0.00     0.068 A 
ATOM      9  C   *** d   *       0.428   6.121  26.358  0.00  0.00     0.044 A 
ATOM     10  C   *** d   *       1.394   9.563  25.747  0.00  0.00     0.173 A 
ATOM     11  C   *** d   *       2.495   6.259  25.293  0.00  0.00     0.043 A 
ATOM     12  C   *** d   *       2.714   9.720  25.064  0.00  0.00    -0.008 A 
ATOM     13  C   *** d   *       3.241   8.513  24.834  0.00  0.00     0.092 A 
ATOM     14  C   *** d   *       0.363   7.483  26.357  0.00  0.00     0.257 A 
ATOM     15  C   *** d   *      -0.641   5.258  26.971  0.00  0.00     0.224 C 
ATOM     16  C   *** d   *       0.192   3.330  25.783  0.00  0.00     0.298 C 
ATOM     17  C   *** d   *       3.370  10.823  24.692  0.00  0.00     0.025 A 
ATOM     18  C   *** d   *       4.558  10.635  24.089  0.00  0.00    -0.007 A 
ATOM     19  C   *** d   *       5.011   9.375  23.900  0.00  0.00     0.068 A 
ATOM     20  C   *** d   *       5.297  11.681  23.677  0.00  0.00     0.014 A 
ATOM     21  C   *** d   *       6.201   9.191  23.297  0.00  0.00     0.032 A 
ATOM     22  C   *** d   *       6.481  11.485  23.077  0.00  0.00     0.001 A 
ATOM     23  C   *** d   *       6.933  10.237  22.887  0.00  0.00     0.002 A 
ENDROOT
BRANCH   6  24
ATOM     24  O   *** d   *       2.340   3.560  24.751  0.00  0.00    -0.375 OA
ATOM     25  H   *** d   *       2.639   2.662  24.890  0.00  0.00     0.211 HD
ENDBRANCH   6  24
BRANCH   6  26
ATOM     26  C   *** d   *       2.309   3.562  27.141  0.00  0.00     0.049 C 
ATOM     27  C   *** d   *       1.641   2.417  27.916  0.00  0.00     0.009 C 
ENDBRANCH   6  26
TORSDOF 2
ENDMDL
MODEL 9
REMARK VINA RESULT:      -7.1      3.521      4.526
REMARK  2 active torsions:
REMARK  status: ('A' for Active; 'I' for Inactive)
REMARK    1  A    between atoms: O_2  and  C_7 
REMARK    2  A    between atoms: C_7  and  C_16 
ROOT
ATOM      1  O   *** d   *       5.384   4.311  24.379  0.00  0.00    -0.314 OA
ATOM      2  O   *** d   *       2.243   5.491  26.696  0.00  0.00    -0.267 OA
ATOM      3  O   *** d   *       6.578   4.664  22.510  0.00  0.00    -0.261 OA
ATOM      4  N   *** d   *       1.977   7.230  25.437  0.00  0.00    -0.307 N 
ATOM      5  N   *** d   *       1.371  10.045  23.608  0.00  0.00    -0.246 NA
ATOM      6  C   *** d   *       5.543   6.608  23.517  0.00  0.00     0.173 C 
ATOM      7  C   *** d   *       4.208   6.850  24.195  0.00  0.00     0.002 A 
ATOM      8  C   *** d   *       2.279   8.084  24.546  0.00  0.00     0.068 A 
ATOM      9  C   *** d   *       3.816   5.996  25.159  0.00  0.00     0.044 A 
ATOM     10  C   *** d   *       0.679   7.588  26.043  0.00  0.00     0.173 A 
ATOM     11  C   *** d   *       3.435   7.913  23.891  0.00  0.00     0.043 A 
ATOM     12  C   *** d   *       0.376   8.826  25.263  0.00  0.00    -0.008 A 
ATOM     13  C   *** d   *       1.367   9.058  24.396  0.00  0.00     0.092 A 
ATOM     14  C   *** d   *       2.636   6.219  25.806  0.00  0.00     0.257 A 
ATOM     15  C   *** d   *       4.723   4.846  25.501  0.00  0.00     0.224 C 
ATOM     16  C   *** d   *       5.899   5.116  23.411  0.00  0.00     0.298 C 
ATOM     17  C   *** d   *      -0.672   9.653  25.324  0.00  0.00     0.025 A 
ATOM     18  C   *** d   *      -0.656  10.699  24.478  0.00  0.00    -0.007 A 
ATOM     19  C   *** d   *       0.391  10.853  23.637  0.00  0.00     0.068 A 
ATOM     20  C   *** d   *      -1.665  11.590  24.463  0.00  0.00     0.014 A 
ATOM     21  C   *** d   *       0.403  11.902  22.793  0.00  0.00     0.032 A 
ATOM     22  C   *** d   *      -1.642  12.631  23.616  0.00  0.00     0.001 A 
ATOM     23  C   *** d   *      -0.605  12.787  22.780  0.00  0.00     0.002 A 
ENDROOT
BRANCH   6  24
ATOM     24  O   *** d   *       5.467   7.134  22.197  0.00  0.00    -0.375 OA
ATOM     25  H   *** d   *       6.275   6.947  21.721  0.00  0.00     0.211 HD
ENDBRANCH   6  24
BRANCH   6  26
ATOM     26  C   *** d   *       6.644   7.374  24.264  0.00  0.00     0.049 C 
ATOM     27  C   *** d   *       7.692   8.046  23.365  0.00  0.00     0.009 C 
ENDBRANCH   6  26
TORSDOF 2
ENDMDL
MODEL 10
REMARK VINA RESULT:      -7.1     14.103     16.811
REMARK  2 active torsions:
REMARK  status: ('A' for Active; 'I' for Inactive)
REMARK    1  A    between atoms: O_2  and  C_7 
REMARK    2  A    between atoms: C_7  and  C_16 
ROOT
ATOM      1  O   *** d   *      -7.253   1.189  19.499  0.00  0.00    -0.314 OA
ATOM      2  O   *** d   *      -3.984   1.942  17.180  0.00  0.00    -0.267 OA
ATOM      3  O   *** d   *      -9.479   0.897  19.572  0.00  0.00    -0.261 OA
ATOM      4  N   *** d   *      -5.209   1.757  15.406  0.00  0.00    -0.307 N 
ATOM      5  N   *** d   *      -6.930   1.500  12.472  0.00  0.00    -0.246 NA
ATOM      6  C   *** d   *      -8.366   0.231  17.527  0.00  0.00     0.173 C 
ATOM      7  C   *** d   *      -7.221   0.814  16.720  0.00  0.00     0.002 A 
ATOM      8  C   *** d   *      -6.238   1.458  14.723  0.00  0.00     0.068 A 
ATOM      9  C   *** d   *      -6.088   1.150  17.365  0.00  0.00     0.044 A 
ATOM     10  C   *** d   *      -4.159   2.282  14.511  0.00  0.00     0.173 A 
ATOM     11  C   *** d   *      -7.294   0.960  15.381  0.00  0.00     0.043 A 
ATOM     12  C   *** d   *      -4.879   2.186  13.204  0.00  0.00    -0.008 A 
ATOM     13  C   *** d   *      -6.103   1.689  13.408  0.00  0.00     0.092 A 
ATOM     14  C   *** d   *      -5.036   1.641  16.650  0.00  0.00     0.257 A 
ATOM     15  C   *** d   *      -6.028   0.933  18.853  0.00  0.00     0.224 C 
ATOM     16  C   *** d   *      -8.435   0.790  18.958  0.00  0.00     0.298 C 
ATOM     17  C   *** d   *      -4.479   2.508  11.971  0.00  0.00     0.025 A 
ATOM     18  C   *** d   *      -5.370   2.302  10.983  0.00  0.00    -0.007 A 
ATOM     19  C   *** d   *      -6.585   1.795  11.285  0.00  0.00     0.068 A 
ATOM     20  C   *** d   *      -5.064   2.593   9.706  0.00  0.00     0.014 A 
ATOM     21  C   *** d   *      -7.474   1.589  10.293  0.00  0.00     0.032 A 
ATOM     22  C   *** d   *      -5.957   2.386   8.726  0.00  0.00     0.001 A 
ATOM     23  C   *** d   *      -7.165   1.882   9.022  0.00  0.00     0.002 A 
ENDROOT
BRANCH   6  24
ATOM     24  O   *** d   *      -9.582   0.564  16.868  0.00  0.00    -0.375 OA
ATOM     25  H   *** d   *      -9.528   1.447  16.505  0.00  0.00     0.211 HD
ENDBRANCH   6  24
BRANCH   6  26
ATOM     26  C   *** d   *      -8.248  -1.299  17.551  0.00  0.00     0.049 C 
ATOM     27  C   *** d   *      -9.581  -2.055  17.444  0.00  0.00     0.009 C 
ENDBRANCH   6  26
TORSDOF 2
ENDMDL
MODEL 11
REMARK VINA RESULT:      -7.0      4.915      5.995
REMARK  2 active torsions:
REMARK  status: ('A' for Active; 'I' for Inactive)
REMARK    1  A    between atoms: O_2  and  C_7 
REMARK    2  A    between atoms: C_7  and  C_16 
ROOT
ATOM      1  O   *** d   *       3.392   4.132  30.648  0.00  0.00    -0.314 OA
ATOM      2  O   *** d   *       0.330   6.818  30.447  0.00  0.00    -0.267 OA
ATOM      3  O   *** d   *       5.206   3.272  29.643  0.00  0.00    -0.261 OA
ATOM      4  N   *** d   *       1.201   7.666  28.658  0.00  0.00    -0.307 N 
ATOM      5  N   *** d   *       2.388   9.175  25.838  0.00  0.00    -0.246 NA
ATOM      6  C   *** d   *       4.698   5.589  29.160  0.00  0.00     0.173 C 
ATOM      7  C   *** d   *       3.406   6.354  28.937  0.00  0.00     0.002 A 
ATOM      8  C   *** d   *       2.095   7.874  27.780  0.00  0.00     0.068 A 
ATOM      9  C   *** d   *       2.408   6.199  29.827  0.00  0.00     0.044 A 
ATOM     10  C   *** d   *       0.011   8.484  28.352  0.00  0.00     0.173 A 
ATOM     11  C   *** d   *       3.252   7.209  27.906  0.00  0.00     0.043 A 
ATOM     12  C   *** d   *       0.493   9.167  27.112  0.00  0.00    -0.008 A 
ATOM     13  C   *** d   *       1.735   8.757  26.835  0.00  0.00     0.092 A 
ATOM     14  C   *** d   *       1.254   6.906  29.664  0.00  0.00     0.257 A 
ATOM     15  C   *** d   *       2.632   5.268  30.988  0.00  0.00     0.224 C 
ATOM     16  C   *** d   *       4.477   4.225  29.834  0.00  0.00     0.298 C 
ATOM     17  C   *** d   *      -0.115  10.056  26.323  0.00  0.00     0.025 A 
ATOM     18  C   *** d   *       0.591  10.494  25.264  0.00  0.00    -0.007 A 
ATOM     19  C   *** d   *       1.842  10.023  25.064  0.00  0.00     0.068 A 
ATOM     20  C   *** d   *       0.069  11.391  24.408  0.00  0.00     0.014 A 
ATOM     21  C   *** d   *       2.547  10.464  24.004  0.00  0.00     0.032 A 
ATOM     22  C   *** d   *       0.780  11.823  23.355  0.00  0.00     0.001 A 
ATOM     23  C   *** d   *       2.021  11.357  23.153  0.00  0.00     0.002 A 
ENDROOT
BRANCH   6  24
ATOM     24  O   *** d   *       5.295   5.358  27.890  0.00  0.00    -0.375 OA
ATOM     25  H   *** d   *       6.214   5.627  27.905  0.00  0.00     0.211 HD
ENDBRANCH   6  24
BRANCH   6  26
ATOM     26  C   *** d   *       5.666   6.450  29.984  0.00  0.00     0.049 C 
ATOM     27  C   *** d   *       7.151   6.269  29.638  0.00  0.00     0.009 C 
ENDBRANCH   6  26
TORSDOF 2
ENDMDL
MODEL 12
REMARK VINA RESULT:      -7.0      6.977      8.805
REMARK  2 active torsions:
REMARK  status: ('A' for Active; 'I' for Inactive)
REMARK    1  A    between atoms: O_2  and  C_7 
REMARK    2  A    between atoms: C_7  and  C_16 
ROOT
ATOM      1  O   *** d   *       3.865   5.126  33.220  0.00  0.00    -0.314 OA
ATOM      2  O   *** d   *       3.691   4.417  29.208  0.00  0.00    -0.267 OA
ATOM      3  O   *** d   *       3.276   6.473  34.918  0.00  0.00    -0.261 OA
ATOM      4  N   *** d   *       2.287   6.047  28.988  0.00  0.00    -0.307 N 
ATOM      5  N   *** d   *       0.057   8.560  28.395  0.00  0.00    -0.246 NA
ATOM      6  C   *** d   *       1.753   6.371  33.038  0.00  0.00     0.173 C 
ATOM      7  C   *** d   *       1.948   6.289  31.536  0.00  0.00     0.002 A 
ATOM      8  C   *** d   *       1.466   6.940  29.365  0.00  0.00     0.068 A 
ATOM      9  C   *** d   *       2.795   5.362  31.050  0.00  0.00     0.044 A 
ATOM     10  C   *** d   *       2.367   6.043  27.514  0.00  0.00     0.173 A 
ATOM     11  C   *** d   *       1.267   7.082  30.683  0.00  0.00     0.043 A 
ATOM     12  C   *** d   *       1.397   7.140  27.211  0.00  0.00    -0.008 A 
ATOM     13  C   *** d   *       0.903   7.623  28.356  0.00  0.00     0.092 A 
ATOM     14  C   *** d   *       2.954   5.248  29.700  0.00  0.00     0.257 A 
ATOM     15  C   *** d   *       3.505   4.467  32.029  0.00  0.00     0.224 C 
ATOM     16  C   *** d   *       3.020   6.001  33.828  0.00  0.00     0.298 C 
ATOM     17  C   *** d   *       1.002   7.646  26.040  0.00  0.00     0.025 A 
ATOM     18  C   *** d   *       0.101   8.644  26.095  0.00  0.00    -0.007 A 
ATOM     19  C   *** d   *      -0.342   9.067  27.300  0.00  0.00     0.068 A 
ATOM     20  C   *** d   *      -0.361   9.221  24.971  0.00  0.00     0.014 A 
ATOM     21  C   *** d   *      -1.245  10.066  27.352  0.00  0.00     0.032 A 
ATOM     22  C   *** d   *      -1.259  10.216  25.035  0.00  0.00     0.001 A 
ATOM     23  C   *** d   *      -1.702  10.638  26.228  0.00  0.00     0.002 A 
ENDROOT
BRANCH   6  24
ATOM     24  O   *** d   *       1.412   7.713  33.363  0.00  0.00    -0.375 OA
ATOM     25  H   *** d   *       2.200   8.210  33.580  0.00  0.00     0.211 HD
ENDBRANCH   6  24
BRANCH   6  26
ATOM     26  C   *** d   *       0.578   5.475  33.452  0.00  0.00     0.049 C 
ATOM     27  C   *** d   *       0.779   4.706  34.766  0.00  0.00     0.009 C 
ENDBRANCH   6  26
TORSDOF 2
ENDMDL
MODEL 13
REMARK VINA RESULT:      -6.9     11.491     14.710
REMARK  2 active torsions:
REMARK  status: ('A' for Active; 'I' for Inactive)
REMARK    1  A    between atoms: O_2  and  C_7 
REMARK    2  A    between atoms: C_7  and  C_16 
ROOT
ATOM      1  O   *** d   *       2.187   1.412  15.972  0.00  0.00    -0.314 OA
ATOM      2  O   *** d   *      -1.598   1.685  17.463  0.00  0.00    -0.267 OA
ATOM      3  O   *** d   *       3.481   1.268  14.142  0.00  0.00    -0.261 OA
ATOM      4  N   *** d   *      -2.363   1.936  15.455  0.00  0.00    -0.307 N 
ATOM      5  N   *** d   *      -3.800   2.360  12.391  0.00  0.00    -0.246 NA
ATOM      6  C   *** d   *       1.390   2.466  13.899  0.00  0.00     0.173 C 
ATOM      7  C   *** d   *      -0.009   2.251  14.444  0.00  0.00     0.002 A 
ATOM      8  C   *** d   *      -2.312   2.149  14.204  0.00  0.00     0.068 A 
ATOM      9  C   *** d   *      -0.155   2.028  15.764  0.00  0.00     0.044 A 
ATOM     10  C   *** d   *      -3.771   1.775  15.870  0.00  0.00     0.173 A 
ATOM     11  C   *** d   *      -1.101   2.322  13.655  0.00  0.00     0.043 A 
ATOM     12  C   *** d   *      -4.440   1.954  14.545  0.00  0.00    -0.008 A 
ATOM     13  C   *** d   *      -3.513   2.173  13.606  0.00  0.00     0.092 A 
ATOM     14  C   *** d   *      -1.409   1.870  16.278  0.00  0.00     0.257 A 
ATOM     15  C   *** d   *       1.082   1.997  16.619  0.00  0.00     0.224 C 
ATOM     16  C   *** d   *       2.460   1.670  14.665  0.00  0.00     0.298 C 
ATOM     17  C   *** d   *      -5.735   1.926  14.219  0.00  0.00     0.025 A 
ATOM     18  C   *** d   *      -6.028   2.126  12.920  0.00  0.00    -0.007 A 
ATOM     19  C   *** d   *      -5.022   2.340  12.043  0.00  0.00     0.068 A 
ATOM     20  C   *** d   *      -7.302   2.117  12.490  0.00  0.00     0.014 A 
ATOM     21  C   *** d   *      -5.319   2.541  10.744  0.00  0.00     0.032 A 
ATOM     22  C   *** d   *      -7.586   2.318  11.194  0.00  0.00     0.001 A 
ATOM     23  C   *** d   *      -6.591   2.530  10.320  0.00  0.00     0.002 A 
ENDROOT
BRANCH   6  24
ATOM     24  O   *** d   *       1.406   2.029  12.545  0.00  0.00    -0.375 OA
ATOM     25  H   *** d   *       1.140   2.743  11.967  0.00  0.00     0.211 HD
ENDBRANCH   6  24
BRANCH   6  26
ATOM     26  C   *** d   *       1.720   3.965  13.912  0.00  0.00     0.049 C 
ATOM     27  C   *** d   *       0.541   4.892  13.580  0.00  0.00     0.009 C 
ENDBRANCH   6  26
TORSDOF 2
ENDMDL
MODEL 14
REMARK VINA RESULT:      -6.8      5.326      7.373
REMARK  2 active torsions:
REMARK  status: ('A' for Active; 'I' for Inactive)
REMARK    1  A    between atoms: O_2  and  C_7 
REMARK    2  A    between atoms: C_7  and  C_16 
ROOT
ATOM      1  O   *** d   *       5.989   4.639  30.116  0.00  0.00    -0.314 OA
ATOM      2  O   *** d   *       4.830   5.009  26.224  0.00  0.00    -0.267 OA
ATOM      3  O   *** d   *       5.718   5.338  32.232  0.00  0.00    -0.261 OA
ATOM      4  N   *** d   *       3.229   6.329  26.834  0.00  0.00    -0.307 N 
ATOM      5  N   *** d   *       0.630   8.419  27.553  0.00  0.00    -0.246 NA
ATOM      6  C   *** d   *       3.770   5.446  30.798  0.00  0.00     0.173 C 
ATOM      7  C   *** d   *       3.561   5.808  29.340  0.00  0.00     0.002 A 
ATOM      8  C   *** d   *       2.436   6.909  27.640  0.00  0.00     0.068 A 
ATOM      9  C   *** d   *       4.354   5.231  28.417  0.00  0.00     0.044 A 
ATOM     10  C   *** d   *       2.909   6.736  25.451  0.00  0.00     0.173 A 
ATOM     11  C   *** d   *       2.584   6.650  28.946  0.00  0.00     0.043 A 
ATOM     12  C   *** d   *       1.766   7.660  25.723  0.00  0.00    -0.008 A 
ATOM     13  C   *** d   *       1.542   7.712  27.040  0.00  0.00     0.092 A 
ATOM     14  C   *** d   *       4.156   5.516  27.098  0.00  0.00     0.257 A 
ATOM     15  C   *** d   *       5.406   4.265  28.890  0.00  0.00     0.224 C 
ATOM     16  C   *** d   *       5.238   5.135  31.134  0.00  0.00     0.298 C 
ATOM     17  C   *** d   *       1.011   8.373  24.883  0.00  0.00     0.025 A 
ATOM     18  C   *** d   *       0.042   9.122  25.442  0.00  0.00    -0.007 A 
ATOM     19  C   *** d   *      -0.109   9.111  26.785  0.00  0.00     0.068 A 
ATOM     20  C   *** d   *      -0.773   9.876  24.682  0.00  0.00     0.014 A 
ATOM     21  C   *** d   *      -1.080   9.861  27.340  0.00  0.00     0.032 A 
ATOM     22  C   *** d   *      -1.736  10.620  25.247  0.00  0.00     0.001 A 
ATOM     23  C   *** d   *      -1.889  10.612  26.579  0.00  0.00     0.002 A 
ENDROOT
BRANCH   6  24
ATOM     24  O   *** d   *       3.365   6.558  31.589  0.00  0.00    -0.375 OA
ATOM     25  H   *** d   *       4.053   7.223  31.595  0.00  0.00     0.211 HD
ENDBRANCH   6  24
BRANCH   6  26
ATOM     26  C   *** d   *       2.869   4.258  31.164  0.00  0.00     0.049 C 
ATOM     27  C   *** d   *       2.522   4.141  32.656  0.00  0.00     0.009 C 
ENDBRANCH   6  26
TORSDOF 2
ENDMDL
MODEL 15
REMARK VINA RESULT:      -6.8     18.914     20.449
REMARK  2 active torsions:
REMARK  status: ('A' for Active; 'I' for Inactive)
REMARK    1  A    between atoms: O_2  and  C_7 
REMARK    2  A    between atoms: C_7  and  C_16 
ROOT
ATOM      1  O   *** d   *      -7.963  26.716  19.785  0.00  0.00    -0.314 OA
ATOM      2  O   *** d   *      -6.104  29.430  22.194  0.00  0.00    -0.267 OA
ATOM      3  O   *** d   *      -8.664  24.597  19.531  0.00  0.00    -0.261 OA
ATOM      4  N   *** d   *      -6.085  27.981  23.800  0.00  0.00    -0.307 N 
ATOM      5  N   *** d   *      -5.952  25.875  26.480  0.00  0.00    -0.246 NA
ATOM      6  C   *** d   *      -8.616  25.459  21.794  0.00  0.00     0.173 C 
ATOM      7  C   *** d   *      -7.661  26.363  22.550  0.00  0.00     0.002 A 
ATOM      8  C   *** d   *      -6.397  26.913  24.413  0.00  0.00     0.068 A 
ATOM      9  C   *** d   *      -7.286  27.522  21.976  0.00  0.00     0.044 A 
ATOM     10  C   *** d   *      -5.182  28.788  24.645  0.00  0.00     0.173 A 
ATOM     11  C   *** d   *      -7.219  26.059  23.788  0.00  0.00     0.043 A 
ATOM     12  C   *** d   *      -5.097  27.893  25.839  0.00  0.00    -0.008 A 
ATOM     13  C   *** d   *      -5.842  26.803  25.630  0.00  0.00     0.092 A 
ATOM     14  C   *** d   *      -6.458  28.365  22.657  0.00  0.00     0.257 A 
ATOM     15  C   *** d   *      -7.832  27.847  20.612  0.00  0.00     0.224 C 
ATOM     16  C   *** d   *      -8.432  25.535  20.269  0.00  0.00     0.298 C 
ATOM     17  C   *** d   *      -4.426  28.041  26.985  0.00  0.00     0.025 A 
ATOM     18  C   *** d   *      -4.552  27.046  27.882  0.00  0.00    -0.007 A 
ATOM     19  C   *** d   *      -5.329  25.981  27.582  0.00  0.00     0.068 A 
ATOM     20  C   *** d   *      -3.917  27.100  29.067  0.00  0.00     0.014 A 
ATOM     21  C   *** d   *      -5.453  24.987  28.483  0.00  0.00     0.032 A 
ATOM     22  C   *** d   *      -4.047  26.103  29.956  0.00  0.00     0.001 A 
ATOM     23  C   *** d   *      -4.817  25.045  29.663  0.00  0.00     0.002 A 
ENDROOT
BRANCH   6  24
ATOM     24  O   *** d   *      -8.364  24.118  22.199  0.00  0.00    -0.375 OA
ATOM     25  H   *** d   *      -8.590  23.514  21.492  0.00  0.00     0.211 HD
ENDBRANCH   6  24
BRANCH   6  26
ATOM     26  C   *** d   *     -10.061  25.802  22.181  0.00  0.00     0.049 C 
ATOM     27  C   *** d   *     -11.038  24.617  22.162  0.00  0.00     0.009 C 
ENDBRANCH   6  26
TORSDOF 2
ENDMDL
MODEL 16
REMARK VINA RESULT:      -6.7      5.963      8.109
REMARK  2 active torsions:
REMARK  status: ('A' for Active; 'I' for Inactive)
REMARK    1  A    between atoms: O_2  and  C_7 
REMARK    2  A    between atoms: C_7  and  C_16 
ROOT
ATOM      1  O   *** d   *      -0.356   7.687  26.119  0.00  0.00    -0.314 OA
ATOM      2  O   *** d   *       1.998   8.256  29.399  0.00  0.00    -0.267 OA
ATOM      3  O   *** d   *      -0.722   6.494  24.251  0.00  0.00    -0.261 OA
ATOM      4  N   *** d   *       3.090   6.451  28.920  0.00  0.00    -0.307 N 
ATOM      5  N   *** d   *       4.944   3.640  28.377  0.00  0.00    -0.246 NA
ATOM      6  C   *** d   *       0.349   5.332  26.086  0.00  0.00     0.173 C 
ATOM      7  C   *** d   *       1.391   5.732  27.114  0.00  0.00     0.002 A 
ATOM      8  C   *** d   *       3.325   5.350  28.331  0.00  0.00     0.068 A 
ATOM      9  C   *** d   *       1.213   6.882  27.791  0.00  0.00     0.044 A 
ATOM     10  C   *** d   *       4.150   6.715  29.912  0.00  0.00     0.173 A 
ATOM     11  C   *** d   *       2.455   4.951  27.393  0.00  0.00     0.043 A 
ATOM     12  C   *** d   *       4.991   5.497  29.705  0.00  0.00    -0.008 A 
ATOM     13  C   *** d   *       4.441   4.734  28.754  0.00  0.00     0.092 A 
ATOM     14  C   *** d   *       2.120   7.239  28.745  0.00  0.00     0.257 A 
ATOM     15  C   *** d   *      -0.006   7.707  27.482  0.00  0.00     0.224 C 
ATOM     16  C   *** d   *      -0.301   6.540  25.390  0.00  0.00     0.298 C 
ATOM     17  C   *** d   *       6.123   5.115  30.302  0.00  0.00     0.025 A 
ATOM     18  C   *** d   *       6.650   3.947  29.891  0.00  0.00    -0.007 A 
ATOM     19  C   *** d   *       6.021   3.244  28.923  0.00  0.00     0.068 A 
ATOM     20  C   *** d   *       7.788   3.474  30.431  0.00  0.00     0.014 A 
ATOM     21  C   *** d   *       6.551   2.074  28.514  0.00  0.00     0.032 A 
ATOM     22  C   *** d   *       8.307   2.308  30.015  0.00  0.00     0.001 A 
ATOM     23  C   *** d   *       7.686   1.608  29.055  0.00  0.00     0.002 A 
ENDROOT
BRANCH   6  24
ATOM     24  O   *** d   *       0.994   4.548  25.090  0.00  0.00    -0.375 OA
ATOM     25  H   *** d   *       0.925   4.977  24.237  0.00  0.00     0.211 HD
ENDBRANCH   6  24
BRANCH   6  26
ATOM     26  C   *** d   *      -0.719   4.455  26.755  0.00  0.00     0.049 C 
ATOM     27  C   *** d   *      -0.608   2.953  26.451  0.00  0.00     0.009 C 
ENDBRANCH   6  26
TORSDOF 2
ENDMDL
MODEL 17
REMARK VINA RESULT:      -6.7     20.319     22.886
REMARK  2 active torsions:
REMARK  status: ('A' for Active; 'I' for Inactive)
REMARK    1  A    between atoms: O_2  and  C_7 
REMARK    2  A    between atoms: C_7  and  C_16 
ROOT
ATOM      1  O   *** d   *     -17.070  25.319  21.295  0.00  0.00    -0.314 OA
ATOM      2  O   *** d   *     -14.520  23.005  23.480  0.00  0.00    -0.267 OA
ATOM      3  O   *** d   *     -17.301  27.086  19.928  0.00  0.00    -0.261 OA
ATOM      4  N   *** d   *     -12.838  24.064  22.626  0.00  0.00    -0.307 N 
ATOM      5  N   *** d   *     -10.034  25.578  21.408  0.00  0.00    -0.246 NA
ATOM      6  C   *** d   *     -15.192  25.902  19.819  0.00  0.00     0.173 C 
ATOM      7  C   *** d   *     -14.300  25.253  20.861  0.00  0.00     0.002 A 
ATOM      8  C   *** d   *     -12.232  24.838  21.821  0.00  0.00     0.068 A 
ATOM      9  C   *** d   *     -14.861  24.410  21.749  0.00  0.00     0.044 A 
ATOM     10  C   *** d   *     -11.866  23.472  23.566  0.00  0.00     0.173 A 
ATOM     11  C   *** d   *     -12.968  25.462  20.890  0.00  0.00     0.043 A 
ATOM     12  C   *** d   *     -10.614  24.115  23.063  0.00  0.00    -0.008 A 
ATOM     13  C   *** d   *     -10.908  24.910  22.029  0.00  0.00     0.092 A 
ATOM     14  C   *** d   *     -14.069  23.789  22.669  0.00  0.00     0.257 A 
ATOM     15  C   *** d   *     -16.343  24.169  21.659  0.00  0.00     0.224 C 
ATOM     16  C   *** d   *     -16.617  26.166  20.332  0.00  0.00     0.298 C 
ATOM     17  C   *** d   *      -9.352  24.000  23.486  0.00  0.00     0.025 A 
ATOM     18  C   *** d   *      -8.431  24.718  22.817  0.00  0.00    -0.007 A 
ATOM     19  C   *** d   *      -8.823  25.494  21.782  0.00  0.00     0.068 A 
ATOM     20  C   *** d   *      -7.132  24.670  23.165  0.00  0.00     0.014 A 
ATOM     21  C   *** d   *      -7.898  26.210  21.114  0.00  0.00     0.032 A 
ATOM     22  C   *** d   *      -6.220  25.389  22.493  0.00  0.00     0.001 A 
ATOM     23  C   *** d   *      -6.604  26.160  21.465  0.00  0.00     0.002 A 
ENDROOT
BRANCH   6  24
ATOM     24  O   *** d   *     -14.615  27.154  19.467  0.00  0.00    -0.375 OA
ATOM     25  H   *** d   *     -14.563  27.720  20.236  0.00  0.00     0.211 HD
ENDBRANCH   6  24
BRANCH   6  26
ATOM     26  C   *** d   *     -15.224  25.029  18.558  0.00  0.00     0.049 C 
ATOM     27  C   *** d   *     -15.063  25.793  17.235  0.00  0.00     0.009 C 
ENDBRANCH   6  26
TORSDOF 2
ENDMDL
MODEL 18
REMARK VINA RESULT:      -6.7     16.752     19.601
REMARK  2 active torsions:
REMARK  status: ('A' for Active; 'I' for Inactive)
REMARK    1  A    between atoms: O_2  and  C_7 
REMARK    2  A    between atoms: C_7  and  C_16 
ROOT
ATOM      1  O   *** d   *      -1.794   4.529   3.741  0.00  0.00    -0.314 OA
ATOM      2  O   *** d   *      -5.522   3.067   4.513  0.00  0.00    -0.267 OA
ATOM      3  O   *** d   *       0.136   5.299   4.592  0.00  0.00    -0.261 OA
ATOM      4  N   *** d   *      -5.042   2.975   6.620  0.00  0.00    -0.307 N 
ATOM      5  N   *** d   *      -4.514   2.727   9.981  0.00  0.00    -0.246 NA
ATOM      6  C   *** d   *      -1.064   3.674   5.927  0.00  0.00     0.173 C 
ATOM      7  C   *** d   *      -2.535   3.436   6.215  0.00  0.00     0.002 A 
ATOM      8  C   *** d   *      -4.299   2.996   7.651  0.00  0.00     0.068 A 
ATOM      9  C   *** d   *      -3.391   3.389   5.177  0.00  0.00     0.044 A 
ATOM     10  C   *** d   *      -6.437   2.705   7.023  0.00  0.00     0.173 A 
ATOM     11  C   *** d   *      -2.992   3.227   7.467  0.00  0.00     0.043 A 
ATOM     12  C   *** d   *      -6.248   2.590   8.502  0.00  0.00    -0.008 A 
ATOM     13  C   *** d   *      -4.957   2.773   8.799  0.00  0.00     0.092 A 
ATOM     14  C   *** d   *      -4.711   3.138   5.414  0.00  0.00     0.257 A 
ATOM     15  C   *** d   *      -2.838   3.584   3.792  0.00  0.00     0.224 C 
ATOM     16  C   *** d   *      -0.832   4.572   4.701  0.00  0.00     0.298 C 
ATOM     17  C   *** d   *      -7.135   2.347   9.471  0.00  0.00     0.025 A 
ATOM     18  C   *** d   *      -6.649   2.302  10.725  0.00  0.00    -0.007 A 
ATOM     19  C   *** d   *      -5.328   2.499  10.929  0.00  0.00     0.068 A 
ATOM     20  C   *** d   *      -7.461   2.064  11.771  0.00  0.00     0.014 A 
ATOM     21  C   *** d   *      -4.846   2.452  12.186  0.00  0.00     0.032 A 
ATOM     22  C   *** d   *      -6.970   2.020  13.019  0.00  0.00     0.001 A 
ATOM     23  C   *** d   *      -5.659   2.215  13.226  0.00  0.00     0.002 A 
ENDROOT
BRANCH   6  24
ATOM     24  O   *** d   *      -0.495   4.323   7.058  0.00  0.00    -0.375 OA
ATOM     25  H   *** d   *      -0.344   5.248   6.865  0.00  0.00     0.211 HD
ENDBRANCH   6  24
BRANCH   6  26
ATOM     26  C   *** d   *      -0.352   2.325   5.752  0.00  0.00     0.049 C 
ATOM     27  C   *** d   *       0.362   1.801   7.007  0.00  0.00     0.009 C 
ENDBRANCH   6  26
TORSDOF 2
ENDMDL
MODEL 19
REMARK VINA RESULT:      -6.7      3.507      4.949
REMARK  2 active torsions:
REMARK  status: ('A' for Active; 'I' for Inactive)
REMARK    1  A    between atoms: O_2  and  C_7 
REMARK    2  A    between atoms: C_7  and  C_16 
ROOT
ATOM      1  O   *** d   *      -1.107   1.476  25.414  0.00  0.00    -0.314 OA
ATOM      2  O   *** d   *      -1.199   4.996  27.471  0.00  0.00    -0.267 OA
ATOM      3  O   *** d   *      -0.385   0.383  23.590  0.00  0.00    -0.261 OA
ATOM      4  N   *** d   *       0.224   5.839  26.077  0.00  0.00    -0.307 N 
ATOM      5  N   *** d   *       2.466   7.380  24.019  0.00  0.00    -0.246 NA
ATOM      6  C   *** d   *       1.016   2.186  24.398  0.00  0.00     0.173 C 
ATOM      7  C   *** d   *       0.726   3.555  24.986  0.00  0.00     0.002 A 
ATOM      8  C   *** d   *       1.086   5.838  25.144  0.00  0.00     0.068 A 
ATOM      9  C   *** d   *      -0.169   3.644  25.987  0.00  0.00     0.044 A 
ATOM     10  C   *** d   *       0.052   7.214  26.587  0.00  0.00     0.173 A 
ATOM     11  C   *** d   *       1.370   4.662  24.565  0.00  0.00     0.043 A 
ATOM     12  C   *** d   *       1.025   7.928  25.703  0.00  0.00    -0.008 A 
ATOM     13  C   *** d   *       1.600   7.049  24.876  0.00  0.00     0.092 A 
ATOM     14  C   *** d   *      -0.415   4.861  26.553  0.00  0.00     0.257 A 
ATOM     15  C   *** d   *      -0.836   2.381  26.458  0.00  0.00     0.224 C 
ATOM     16  C   *** d   *      -0.207   1.254  24.419  0.00  0.00     0.298 C 
ATOM     17  C   *** d   *       1.357   9.220  25.650  0.00  0.00     0.025 A 
ATOM     18  C   *** d   *       2.281   9.561  24.732  0.00  0.00    -0.007 A 
ATOM     19  C   *** d   *       2.808   8.602  23.938  0.00  0.00     0.068 A 
ATOM     20  C   *** d   *       2.685  10.837  24.599  0.00  0.00     0.014 A 
ATOM     21  C   *** d   *       3.733   8.946  23.022  0.00  0.00     0.032 A 
ATOM     22  C   *** d   *       3.607  11.168  23.681  0.00  0.00     0.001 A 
ATOM     23  C   *** d   *       4.132  10.220  22.892  0.00  0.00     0.002 A 
ENDROOT
BRANCH   6  24
ATOM     24  O   *** d   *       1.406   2.365  23.041  0.00  0.00    -0.375 OA
ATOM     25  H   *** d   *       1.908   3.174  22.948  0.00  0.00     0.211 HD
ENDBRANCH   6  24
BRANCH   6  26
ATOM     26  C   *** d   *       2.195   1.547  25.145  0.00  0.00     0.049 C 
ATOM     27  C   *** d   *       3.550   1.654  24.430  0.00  0.00     0.009 C 
ENDBRANCH   6  26
TORSDOF 2
ENDMDL
MODEL 20
REMARK VINA RESULT:      -6.6     19.938     22.798
REMARK  2 active torsions:
REMARK  status: ('A' for Active; 'I' for Inactive)
REMARK    1  A    between atoms: O_2  and  C_7 
REMARK    2  A    between atoms: C_7  and  C_16 
ROOT
ATOM      1  O   *** d   *      -6.965  24.787  22.700  0.00  0.00    -0.314 OA
ATOM      2  O   *** d   *     -10.491  23.632  24.392  0.00  0.00    -0.267 OA
ATOM      3  O   *** d   *      -5.933  25.617  20.886  0.00  0.00    -0.261 OA
ATOM      4  N   *** d   *     -11.560  24.417  22.683  0.00  0.00    -0.307 N 
ATOM      5  N   *** d   *     -13.461  25.592  20.105  0.00  0.00    -0.246 NA
ATOM      6  C   *** d   *      -8.225  26.313  21.242  0.00  0.00     0.173 C 
ATOM      7  C   *** d   *      -9.470  25.604  21.740  0.00  0.00     0.002 A 
ATOM      8  C   *** d   *     -11.723  25.077  21.610  0.00  0.00     0.068 A 
ATOM      9  C   *** d   *      -9.387  24.888  22.878  0.00  0.00     0.044 A 
ATOM     10  C   *** d   *     -12.841  23.802  23.081  0.00  0.00     0.173 A 
ATOM     11  C   *** d   *     -10.654  25.708  21.103  0.00  0.00     0.043 A 
ATOM     12  C   *** d   *     -13.709  24.295  21.968  0.00  0.00    -0.008 A 
ATOM     13  C   *** d   *     -12.978  25.045  21.136  0.00  0.00     0.092 A 
ATOM     14  C   *** d   *     -10.506  24.274  23.361  0.00  0.00     0.257 A 
ATOM     15  C   *** d   *      -8.060  24.829  23.584  0.00  0.00     0.224 C 
ATOM     16  C   *** d   *      -6.929  25.558  21.581  0.00  0.00     0.298 C 
ATOM     17  C   *** d   *     -15.008  24.095  21.730  0.00  0.00     0.025 A 
ATOM     18  C   *** d   *     -15.509  24.683  20.628  0.00  0.00    -0.007 A 
ATOM     19  C   *** d   *     -14.693  25.423  19.846  0.00  0.00     0.068 A 
ATOM     20  C   *** d   *     -16.806  24.543  20.300  0.00  0.00     0.014 A 
ATOM     21  C   *** d   *     -15.199  26.011  18.744  0.00  0.00     0.032 A 
ATOM     22  C   *** d   *     -17.299  25.132  19.200  0.00  0.00     0.001 A 
ATOM     23  C   *** d   *     -16.493  25.868  18.421  0.00  0.00     0.002 A 
ENDROOT
BRANCH   6  24
ATOM     24  O   *** d   *      -8.315  26.416  19.826  0.00  0.00    -0.375 OA
ATOM     25  H   *** d   *      -8.899  27.134  19.585  0.00  0.00     0.211 HD
ENDBRANCH   6  24
BRANCH   6  26
ATOM     26  C   *** d   *      -8.184  27.737  21.814  0.00  0.00     0.049 C 
ATOM     27  C   *** d   *      -6.894  28.518  21.521  0.00  0.00     0.009 C 
ENDBRANCH   6  26
TORSDOF 2
ENDMDL
